22
Properties=species:S:1:pos:R:3:forces:R:3 dipe.pdb=T energy=-13479.12603658878 pbc="F F F"
H        7.14361560       1.94835453       1.77820106      -0.02411647       0.00054284       0.01324442
C        6.41258010       2.69919027       2.09974931      -0.01601664      -0.00180430       0.00377367
H        5.51803393       2.63226436       1.46265691      -0.01166402      -0.02690361      -0.00710274
H        6.83474410       3.70728832       1.97445834       0.01788780      -0.01468347      -0.00756711
C        6.04659881       2.44839680       3.55085290       0.01188104      -0.00188357       0.01057309
O        6.40721492       1.46322378       4.16894965       0.00453286       0.00524769      -0.00794040
N        5.28377783       3.42303881       4.11132452       0.01341408       0.01000753      -0.01991490
H        4.94061639       4.21488733       3.57517562      -0.00187448       0.02742796      -0.00164764
C        4.86674165       3.40502235       5.48852545       0.01516829       0.00012083      -0.02553903
H        4.39553406       2.43144997       5.71724377       0.01199644       0.00970172       0.00906008
C        6.05015819       3.61992584       6.44175858      -0.00685975      -0.00139005      -0.00634261
H        5.74918921       3.57611245       7.49931190      -0.01975774       0.00867358      -0.01365216
H        6.79214280       2.82999291       6.26432342      -0.00980355       0.01061614      -0.00274421
H        6.51135847       4.59915821       6.24409457       0.01323531      -0.00558174       0.04097625
C        3.81511207       4.51407051       5.63907859       0.00786819      -0.03576985      -0.01896403
O        3.57830270       5.29283581       4.73201970       0.02489369       0.00982567       0.01016565
N        3.20211267       4.56995597       6.84520555       0.00866638       0.00315887      -0.01340815
H        3.44760217       3.88256749       7.54485583       0.00402742       0.01074196      -0.01320727
C        2.25539711       5.60515357       7.18590057      -0.00341918      -0.00576558       0.01842773
H        2.08092358       6.20633970       6.28521749      -0.01106773      -0.00740349       0.01497587
H        1.30031014       5.17621145       7.52151081      -0.02984147      -0.01317126      -0.00353067
H        2.64593336       6.26155921       7.97858567       0.00084973       0.01829215       0.02036413
